Version 4
SHEET 1 1040 680
WIRE -32 -80 -96 -80
WIRE 608 -80 -32 -80
WIRE 256 48 256 0
WIRE 256 48 80 48
WIRE 416 48 256 48
WIRE 160 128 128 128
WIRE 368 128 336 128
WIRE 608 128 608 -80
WIRE -32 176 -32 -80
WIRE 160 176 160 128
WIRE 416 176 416 144
WIRE 416 176 160 176
WIRE 448 176 416 176
WIRE 528 176 448 176
WIRE 704 176 624 176
WIRE -112 224 -160 224
WIRE 48 224 -16 224
WIRE 80 224 80 144
WIRE 80 224 48 224
WIRE 336 224 336 128
WIRE 336 224 80 224
WIRE 80 256 80 224
WIRE 416 256 416 176
WIRE 160 336 160 176
WIRE 160 336 128 336
WIRE 336 336 336 224
WIRE 368 336 336 336
WIRE 80 384 80 352
WIRE 256 384 80 384
WIRE 416 384 416 352
WIRE 416 384 256 384
WIRE 256 416 256 384
WIRE -128 432 -128 400
FLAG 416 96 vdd
FLAG 80 96 vdd
FLAG 256 0 vdd
FLAG 256 416 0
FLAG 576 176 0
FLAG -64 224 0
FLAG 80 304 0
FLAG 416 304 0
FLAG -96 -80 WL
IOPIN -96 -80 In
FLAG -160 224 BL~
IOPIN -160 224 In
FLAG 704 176 BL
IOPIN 704 176 In
FLAG -128 512 0
FLAG -128 400 vdd
FLAG 816 240 0
FLAG 816 464 0
FLAG 816 160 BL
IOPIN 816 160 In
FLAG 816 384 BL~
IOPIN 816 384 In
FLAG 816 32 0
FLAG 816 -48 WL
IOPIN 816 -48 In
FLAG 448 176 Q~
FLAG 48 224 Q
SYMBOL pmos4 128 48 M0
SYMATTR InstName M1
SYMATTR Value pch
SYMATTR Value2 l=130n w=260n
SYMBOL pmos4 368 48 R0
SYMATTR InstName M2
SYMATTR Value pch
SYMATTR Value2 l=130n w=260n
SYMBOL nmos4 128 256 M0
SYMATTR InstName M3
SYMATTR Value nch
SYMATTR Value2 l=130n w=260n
SYMBOL nmos4 368 256 R0
SYMATTR InstName M4
SYMATTR Value nch
SYMATTR Value2 l=130n w=260n
SYMBOL nmos4 -112 176 M90
SYMATTR InstName M5
SYMATTR Value nch
SYMATTR Value2 l=130n w=260n
SYMBOL nmos4 528 128 M90
SYMATTR InstName M6
SYMATTR Value nch
SYMATTR Value2 l=130n w=260n
SYMBOL voltage -128 416 R0
WINDOW 123 0 0 Left 0
WINDOW 39 0 0 Left 0
SYMATTR InstName V1
SYMATTR Value 1.2
SYMBOL voltage 816 144 R0
WINDOW 3 -169 133 Left 2
WINDOW 123 0 0 Left 0
WINDOW 39 0 0 Left 0
SYMATTR Value PULSE(0 1.2 4n 10p 10p 1n 5n)
SYMATTR InstName V2
SYMBOL voltage 816 368 R0
WINDOW 3 -144 128 Left 2
WINDOW 123 0 0 Left 0
WINDOW 39 0 0 Left 0
SYMATTR Value PULSE(1.2 0 4n 10p 10p 1n 5n)
SYMATTR InstName V3
SYMBOL voltage 816 -64 R0
WINDOW 3 -169 133 Left 2
WINDOW 123 0 0 Left 0
WINDOW 39 0 0 Left 0
SYMATTR Value PULSE(0 1.2 1n 10p 10p 2n 3n)
SYMATTR InstName V4
TEXT 104 504 Left 2 !.lib 130nm_bulk.lib
TEXT 102 476 Left 2 !.tran 20n
